data_image0
_chemical_formula_structural       SnO2
_chemical_formula_sum              "Sn1 O2"
_cell_length_a       3.219508068087537
_cell_length_b       3.2195080680875368
_cell_length_c       17.017924649344828
_cell_angle_alpha    90.0
_cell_angle_beta     90.0
_cell_angle_gamma    120.00000000000001

_space_group_name_H-M_alt    "P 1"
_space_group_IT_number       1

loop_
  _space_group_symop_operation_xyz
  'x, y, z'

loop_
  _atom_site_type_symbol
  _atom_site_label
  _atom_site_symmetry_multiplicity
  _atom_site_fract_x
  _atom_site_fract_y
  _atom_site_fract_z
  _atom_site_occupancy
  Sn  Sn1       1.0  0.0  0.0  0.4999999997254417  1.0000
  O   O1        1.0  0.6666666645347588  0.33333333158155865  0.5592882120538963  1.0000
  O   O2        1.0  0.3333333333748459  0.6666666667496918  0.4407117879846026  1.0000
